<?xml version="1.0" encoding="UTF-8"?>

<!-- generated on 2026-01-30T19:25:29.045445+01:00 by Eclipse SUMO netconvert 1.26.0
<netconvertConfiguration xmlns:xsi="http://www.w3.org/2001/XMLSchema-instance" xsi:noNamespaceSchemaLocation="http://sumo.dlr.de/xsd/netconvertConfiguration.xsd">

    <input>
        <osm-files value="/Users/akman/.demandify/cache/osm/c23f44e51e81e7780bddfd3ae5878a04bfe54604744e774e60b33d1432aafb8a.osm.xml"/>
    </input>

    <output>
        <output-file value="/Users/akman/.demandify/cache/networks/a86ef14b8f3253c6e4ea92cbc92b63a85921c5f9436226f0766db4a4edc81e6a.net.xml"/>
    </output>

    <projection>
        <proj.utm value="true"/>
    </projection>

    <processing>
        <geometry.remove value="true"/>
        <roundabouts.guess value="true"/>
    </processing>

    <tls_building>
        <tls.discard-simple value="true"/>
        <tls.guess-signals value="true"/>
    </tls_building>

    <ramp_guessing>
        <ramps.guess value="true"/>
    </ramp_guessing>

    <edge_removal>
        <keep-edges.by-vclass value="passenger"/>
        <keep-edges.components value="1"/>
        <remove-edges.isolated value="true"/>
    </edge_removal>

    <junctions>
        <junctions.join value="true"/>
    </junctions>

    <random_number>
        <seed value="42"/>
    </random_number>

</netconvertConfiguration>
-->

<net version="1.20" junctionCornerDetail="5" limitTurnSpeed="5.50" xmlns:xsi="http://www.w3.org/2001/XMLSchema-instance" xsi:noNamespaceSchemaLocation="http://sumo.dlr.de/xsd/net_file.xsd">

    <location netOffset="-429534.96,-5546649.33" convBoundary="0.00,0.00,3083.00,2798.66" origBoundary="20.013880,50.068013,20.059759,50.093222" projParameter="+proj=utm +zone=34 +ellps=WGS84 +datum=WGS84 +units=m +no_defs"/>

    <type id="highway.living_street" priority="2" numLanes="1" speed="2.78" disallow="tram rail_urban rail rail_electric rail_fast ship container cable_car subway aircraft wheelchair scooter drone" oneway="0"/>
    <type id="highway.primary" priority="12" numLanes="2" speed="27.78" disallow="tram rail_urban rail rail_electric rail_fast ship container cable_car subway aircraft wheelchair scooter drone" oneway="0"/>
    <type id="highway.primary_link" priority="7" numLanes="1" speed="22.22" disallow="tram rail_urban rail rail_electric rail_fast ship container cable_car subway aircraft wheelchair scooter drone" oneway="0"/>
    <type id="highway.residential" priority="3" numLanes="1" speed="13.89" disallow="tram rail_urban rail rail_electric rail_fast ship container cable_car subway aircraft wheelchair scooter drone" oneway="0"/>
    <type id="highway.secondary" priority="11" numLanes="1" speed="27.78" disallow="tram rail_urban rail rail_electric rail_fast ship container cable_car subway aircraft wheelchair scooter drone" oneway="0"/>
    <type id="highway.secondary_link" priority="6" numLanes="1" speed="22.22" disallow="tram rail_urban rail rail_electric rail_fast ship container cable_car subway aircraft wheelchair scooter drone" oneway="0"/>
    <type id="highway.tertiary" priority="10" numLanes="1" speed="22.22" disallow="tram rail_urban rail rail_electric rail_fast ship container cable_car subway aircraft wheelchair scooter drone" oneway="0"/>
    <type id="highway.tertiary_link" priority="5" numLanes="1" speed="22.22" disallow="tram rail_urban rail rail_electric rail_fast ship container cable_car subway aircraft wheelchair scooter drone" oneway="0"/>
    <type id="highway.unclassified" priority="4" numLanes="1" speed="13.89" disallow="tram rail_urban rail rail_electric rail_fast ship container cable_car subway aircraft wheelchair scooter drone" oneway="0"/>

    <edge id=":10021341579_0" function="internal">
        <lane id=":10021341579_0_0" index="0" disallow="tram rail_urban rail rail_electric rail_fast ship container cable_car subway aircraft wheelchair scooter drone" speed="3.65" length="4.67" shape="1353.37,2213.47 1354.78,2213.77 1355.45,2214.37 1355.37,2215.26 1354.55,2216.45"/>
    </edge>
    <edge id=":10059566393_0" function="internal">
        <lane id=":10059566393_0_0" index="0" disallow="tram rail_urban rail rail_electric rail_fast ship container cable_car subway aircraft wheelchair scooter drone" speed="8.33" length="2.23" width="3.00" shape="638.59,1232.24 637.93,1232.34 637.49,1232.42 637.04,1232.51 636.41,1232.68"/>
    </edge>
    <edge id=":10059566393_1" function="internal">
        <lane id=":10059566393_1_0" index="0" disallow="tram rail_urban rail rail_electric rail_fast ship container cable_car subway aircraft wheelchair scooter drone" speed="8.33" length="2.56" width="3.10" shape="635.59,1229.79 636.32,1229.58 636.82,1229.44 637.33,1229.32 638.08,1229.18"/>
    </edge>
    <edge id=":1012562524_0" function="internal">
        <lane id=":1012562524_0_0" index="0" disallow="tram rail_urban rail rail_electric rail_fast ship container cable_car subway aircraft wheelchair scooter drone" speed="7.01" length="9.59" width="1.50" shape="1149.30,1221.88 1147.42,1220.93 1145.43,1221.02 1143.34,1222.15 1141.13,1224.34"/>
    </edge>
    <edge id=":1012562524_1" function="internal">
        <lane id=":1012562524_1_0" index="0" disallow="tram rail_urban rail rail_electric rail_fast ship container cable_car subway aircraft wheelchair scooter drone" speed="8.33" length="10.94" width="6.10" shape="1149.30,1221.88 1140.86,1214.92"/>
    </edge>
    <edge id=":1012562524_2" function="internal">
        <lane id=":1012562524_2_0" index="0" disallow="tram rail_urban rail rail_electric rail_fast ship container cable_car subway aircraft wheelchair scooter drone" speed="6.51" length="9.58" width="6.10" shape="1139.98,1223.37 1141.73,1220.82 1142.46,1218.56 1142.17,1216.59 1140.86,1214.92"/>
    </edge>
    <edge id=":1012562524_3" function="internal">
        <lane id=":1012562524_3_0" index="0" disallow="tram rail_urban rail rail_electric rail_fast ship container cable_car subway aircraft wheelchair scooter drone" speed="2.50" length="2.19" width="1.50" shape="1139.98,1223.37 1140.62,1223.18 1141.03,1223.28 1141.20,1223.66 1141.13,1224.34"/>
    </edge>
    <edge id=":1012562534_0" function="internal">
        <lane id=":1012562534_0_0" index="0" disallow="tram rail_urban rail rail_electric rail_fast ship container cable_car subway aircraft wheelchair scooter drone" speed="5.65" length="7.31" width="3.50" shape="1071.11,1269.94 1069.79,1268.56 1069.28,1267.05 1069.59,1265.39 1070.71,1263.60"/>
    </edge>
    <edge id=":1012562534_1" function="internal">
        <lane id=":1012562534_1_0" index="0" disallow="tram rail_urban rail rail_electric rail_fast ship container cable_car subway aircraft wheelchair scooter drone" speed="2.50" length="2.19" width="1.50" shape="1071.11,1269.94 1070.89,1269.31 1070.96,1268.89 1071.34,1268.71 1072.01,1268.75"/>
    </edge>
    <edge id=":1012562534_2" function="internal">
        <lane id=":1012562534_2_0" index="0" disallow="tram rail_urban rail rail_electric rail_fast ship container cable_car subway aircraft wheelchair scooter drone" speed="8.33" length="8.00" width="3.50" shape="1065.63,1269.78 1070.71,1263.60"/>
    </edge>
    <edge id=":1012562534_3" function="internal">
        <lane id=":1012562534_3_0" index="0" disallow="tram rail_urban rail rail_electric rail_fast ship container cable_car subway aircraft wheelchair scooter drone" speed="6.02" length="7.31" width="1.50" shape="1065.63,1269.78 1067.14,1268.36 1068.71,1267.71 1070.34,1267.84 1072.01,1268.75"/>
    </edge>
    <edge id=":10312124104_0" function="internal">
        <lane id=":10312124104_0_0" index="0" disallow="tram rail_urban rail rail_electric rail_fast ship container cable_car subway aircraft wheelchair scooter drone" speed="8.33" length="3.00" width="1.30" shape="2034.79,419.12 2031.91,419.96"/>
    </edge>
    <edge id=":10312124104_1" function="internal">
        <lane id=":10312124104_1_0" index="0" disallow="tram rail_urban rail rail_electric rail_fast ship container cable_car subway aircraft wheelchair scooter drone" speed="8.33" length="3.00" width="1.35" shape="2031.54,418.72 2034.40,417.83"/>
    </edge>
    <edge id=":10312180570_0" function="internal">
        <lane id=":10312180570_0_0" index="0" disallow="tram rail_urban rail rail_electric rail_fast ship container cable_car subway aircraft wheelchair scooter drone" speed="8.33" length="3.00" width="1.35" shape="2053.37,413.59 2050.49,414.42"/>
    </edge>
    <edge id=":10312180570_1" function="internal">
        <lane id=":10312180570_1_0" index="0" disallow="tram rail_urban rail rail_electric rail_fast ship container cable_car subway aircraft wheelchair scooter drone" speed="8.33" length="3.00" width="1.40" shape="2050.10,413.12 2052.97,412.25"/>
    </edge>
    <edge id=":10741248028_0" function="internal">
        <lane id=":10741248028_0_0" index="0" disallow="tram rail_urban rail rail_electric rail_fast ship container cable_car subway aircraft wheelchair scooter drone" speed="8.33" length="1.16" width="2.75" shape="2359.45,998.01 2359.39,998.33 2359.46,998.56 2359.56,998.80 2359.56,999.14"/>
    </edge>
    <edge id=":10741248028_1" function="internal">
        <lane id=":10741248028_1_0" index="0" disallow="tram rail_urban rail rail_electric rail_fast ship container cable_car subway aircraft wheelchair scooter drone" speed="8.33" length="1.57" width="1.90" shape="2356.86,998.61 2357.01,998.19 2357.22,997.94 2357.45,997.71 2357.68,997.31"/>
    </edge>
    <edge id=":10741248035_0" function="internal">
        <lane id=":10741248035_0_0" index="0" disallow="tram rail_urban rail rail_electric rail_fast ship container cable_car subway aircraft wheelchair scooter drone" speed="8.33" length="2.36" width="5.20" shape="2182.11,1089.21 2181.85,1089.86 2181.66,1090.30 2181.45,1090.73 2181.13,1091.35"/>
    </edge>
    <edge id=":10893253439_0" function="internal">
        <lane id=":10893253439_0_0" index="0" disallow="tram rail_urban rail rail_electric rail_fast ship container cable_car subway aircraft wheelchair scooter drone" speed="8.33" length="2.98" width="3.30" shape="1009.91,1311.80 1012.23,1313.68"/>
    </edge>
    <edge id=":11052796540_0" function="internal">
        <lane id=":11052796540_0_0" index="0" disallow="tram rail_urban rail rail_electric rail_fast ship container cable_car subway aircraft wheelchair scooter drone" speed="9.72" length="0.20" width="1.25" shape="2262.24,1642.00 2262.06,1642.09"/>
    </edge>
    <edge id=":11052796540_1" function="internal">
        <lane id=":11052796540_1_0" index="0" disallow="tram rail_urban rail rail_electric rail_fast ship container cable_car subway aircraft wheelchair scooter drone" speed="9.72" length="0.25" width="1.25" shape="2261.46,1641.00 2261.68,1640.88"/>
    </edge>
    <edge id=":11091242216_0" function="internal">
        <lane id=":11091242216_0_0" index="0" disallow="tram rail_urban rail rail_electric rail_fast ship container cable_car subway aircraft wheelchair scooter drone" speed="13.89" length="3.00" width="1.50" shape="1621.88,1057.28 1618.94,1057.88"/>
    </edge>
    <edge id=":11091242216_1" function="internal">
        <lane id=":11091242216_1_0" index="0" disallow="tram rail_urban rail rail_electric rail_fast ship container cable_car subway aircraft wheelchair scooter drone" speed="13.89" length="3.00" width="1.60" shape="1618.61,1056.42 1621.53,1055.71"/>
    </edge>
    <edge id=":11203050810_0" function="internal">
        <lane id=":11203050810_0_0" index="0" disallow="tram rail_urban rail rail_electric rail_fast ship container cable_car subway aircraft wheelchair scooter drone" speed="6.83" length="9.91" width="5.20" shape="1032.18,1168.70 1029.73,1167.17 1027.46,1166.71 1025.37,1167.31 1023.47,1168.98"/>
    </edge>
    <edge id=":11230386535_0" function="internal">
        <lane id=":11230386535_0_0" index="0" disallow="tram rail_urban rail rail_electric rail_fast ship container cable_car subway aircraft wheelchair scooter drone" speed="9.72" length="0.30" width="5.00" shape="1778.41,681.81 1778.11,681.87"/>
    </edge>
    <edge id=":11275995618_0" function="internal">
        <lane id=":11275995618_0_0" index="0" disallow="tram rail_urban rail rail_electric rail_fast ship container cable_car subway aircraft wheelchair scooter drone" speed="13.89" length="2.05" width="3.00" shape="1242.38,999.78 1242.03,1000.26 1241.71,1000.53 1241.37,1000.78 1240.94,1001.22"/>
    </edge>
    <edge id=":11275995618_1" function="internal">
        <lane id=":11275995618_1_0" index="0" disallow="tram rail_urban rail rail_electric rail_fast ship container cable_car subway aircraft wheelchair scooter drone" speed="13.89" length="1.53" width="3.75" shape="1238.61,999.33 1238.84,998.96 1238.90,998.65 1238.95,998.33 1239.12,997.91"/>
    </edge>
    <edge id=":11594260810_0" function="internal">
        <lane id=":11594260810_0_0" index="0" disallow="tram rail_urban rail rail_electric rail_fast ship container cable_car subway aircraft wheelchair scooter drone" speed="8.33" length="3.00" width="3.50" shape="281.92,669.65 281.06,669.86 280.50,670.12 279.95,670.39 279.09,670.62"/>
    </edge>
    <edge id=":11594260810_1" function="internal">
        <lane id=":11594260810_1_0" index="0" disallow="tram rail_urban rail rail_electric rail_fast ship container cable_car subway aircraft wheelchair scooter drone" speed="8.33" length="3.06" width="2.50" shape="278.50,667.17 279.39,667.09 280.02,667.16 280.64,667.24 281.55,667.18"/>
    </edge>
    <edge id=":1172125199_0" function="internal">
        <lane id=":1172125199_0_0" index="0" disallow="tram rail_urban rail rail_electric rail_fast ship container cable_car subway aircraft wheelchair scooter drone" speed="6.29" length="9.36" shape="1766.73,2052.16 1763.99,2052.46 1762.15,2053.48 1761.19,2055.24 1761.14,2057.74"/>
    </edge>
    <edge id=":1172125199_1" function="internal">
        <lane id=":1172125199_1_0" index="0" disallow="tram rail_urban rail rail_electric rail_fast ship container cable_car subway aircraft wheelchair scooter drone" speed="13.89" length="14.50" shape="1766.73,2052.16 1752.23,2052.30"/>
    </edge>
    <edge id=":1172125199_2" function="internal">
        <lane id=":1172125199_2_0" index="0" disallow="tram rail_urban rail rail_electric rail_fast ship container cable_car subway aircraft wheelchair scooter drone" speed="3.65" length="1.44" shape="1766.73,2052.16 1765.55,2051.33"/>
    </edge>
    <edge id=":1172125199_9" function="internal">
        <lane id=":1172125199_9_0" index="0" disallow="tram rail_urban rail rail_electric rail_fast ship container cable_car subway aircraft wheelchair scooter drone" speed="3.65" length="3.23" shape="1765.55,2051.33 1765.17,2050.53 1765.58,2049.73 1766.80,2048.96"/>
    </edge>
    <edge id=":1172125199_3" function="internal">
        <lane id=":1172125199_3_0" index="0" disallow="tram rail_urban rail rail_electric rail_fast ship container cable_car subway aircraft wheelchair scooter drone" speed="13.89" length="14.70" shape="1752.10,2049.10 1766.80,2048.96"/>
    </edge>
    <edge id=":1172125199_4" function="internal">
        <lane id=":1172125199_4_0" index="0" disallow="tram rail_urban rail rail_electric rail_fast ship container cable_car subway aircraft wheelchair scooter drone" speed="8.22" length="3.86" shape="1752.10,2049.10 1755.60,2049.52 1755.90,2049.70"/>
    </edge>
    <edge id=":1172125199_5" function="internal">
        <lane id=":1172125199_5_0" index="0" disallow="tram rail_urban rail rail_electric rail_fast ship container cable_car subway aircraft wheelchair scooter drone" speed="3.65" length="1.44" shape="1752.10,2049.10 1753.34,2049.85"/>
    </edge>
    <edge id=":1172125199_10" function="internal">
        <lane id=":1172125199_10_0" index="0" disallow="tram rail_urban rail rail_electric rail_fast ship container cable_car subway aircraft wheelchair scooter drone" speed="8.22" length="10.09" shape="1755.90,2049.70 1758.27,2051.10 1760.11,2053.84 1761.14,2057.74"/>
    </edge>
    <edge id=":1172125199_11" function="internal">
        <lane id=":1172125199_11_0" index="0" disallow="tram rail_urban rail rail_electric rail_fast ship container cable_car subway aircraft wheelchair scooter drone" speed="3.65" length="3.23" shape="1753.34,2049.85 1753.77,2050.63 1753.40,2051.45 1752.23,2052.30"/>
    </edge>
    <edge id=":1172125199_6" function="internal">
        <lane id=":1172125199_6_0" index="0" disallow="tram rail_urban rail rail_electric rail_fast ship container cable_car subway aircraft wheelchair scooter drone" speed="6.64" length="8.77" shape="1757.91,2057.73 1757.26,2055.28 1756.10,2053.56 1754.43,2052.56 1752.23,2052.30"/>
    </edge>
    <edge id=":1172125199_7" function="internal">
        <lane id=":1172125199_7_0" index="0" disallow="tram rail_urban rail rail_electric rail_fast ship container cable_car subway aircraft wheelchair scooter drone" speed="7.74" length="14.80" shape="1757.91,2057.73 1758.00,2053.81 1759.52,2051.04 1762.45,2049.43 1766.80,2048.96"/>
    </edge>
    <edge id=":1172125199_8" function="internal">
        <lane id=":1172125199_8_0" index="0" disallow="tram rail_urban rail rail_electric rail_fast ship container cable_car subway aircraft wheelchair scooter drone" speed="3.66" length="4.72" shape="1757.91,2057.73 1758.71,2056.52 1759.52,2056.12 1760.33,2056.52 1761.14,2057.74"/>
    </edge>
    <edge id=":1172125769_0" function="internal">
        <lane id=":1172125769_0_0" index="0" disallow="tram rail_urban rail rail_electric rail_fast ship container cable_car subway aircraft wheelchair scooter drone" speed="3.65" length="4.67" shape="1617.92,2256.31 1617.52,2254.93 1617.73,2254.06 1618.55,2253.71 1619.98,2253.87"/>
    </edge>
    <edge id=":1172126138_0" function="internal">
        <lane id=":1172126138_0_0" index="0" disallow="tram rail_urban rail rail_electric rail_fast ship container cable_car subway aircraft wheelchair scooter drone" speed="3.65" length="4.67" shape="1717.84,2062.78 1716.43,2063.05 1715.58,2062.76 1715.30,2061.91 1715.60,2060.50"/>
    </edge>
    <edge id=":1172126152_0" function="internal">
        <lane id=":1172126152_0_0" index="0" disallow="tram rail_urban rail rail_electric rail_fast ship container cable_car subway aircraft wheelchair scooter drone" speed="13.89" length="14.60" shape="1869.60,2080.76 1868.52,2095.32"/>
    </edge>
    <edge id=":1172126152_1" function="internal">
        <lane id=":1172126152_1_0" index="0" disallow="tram rail_urban rail rail_electric rail_fast ship container cable_car subway aircraft wheelchair scooter drone" speed="7.53" length="4.54" shape="1869.60,2080.76 1868.67,2085.20"/>
    </edge>
    <edge id=":1172126152_2" function="internal">
        <lane id=":1172126152_2_0" index="0" disallow="tram rail_urban rail rail_electric rail_fast ship container cable_car subway aircraft wheelchair scooter drone" speed="3.65" length="1.44" shape="1869.60,2080.76 1868.71,2081.89"/>
    </edge>
    <edge id=":1172126152_9" function="internal">
        <lane id=":1172126152_9_0" index="0" disallow="tram rail_urban rail rail_electric rail_fast ship container cable_car subway aircraft wheelchair scooter drone" speed="7.53" length="11.00" shape="1868.67,2085.20 1866.61,2087.78 1863.43,2088.52 1859.14,2087.41"/>
    </edge>
    <edge id=":1172126152_10" function="internal">
        <lane id=":1172126152_10_0" index="0" disallow="tram rail_urban rail rail_electric rail_fast ship container cable_car subway aircraft wheelchair scooter drone" speed="3.65" length="3.23" shape="1868.71,2081.89 1867.88,2082.22 1867.11,2081.76 1866.41,2080.50"/>
    </edge>
    <edge id=":1172126152_3" function="internal">
        <lane id=":1172126152_3_0" index="0" disallow="tram rail_urban rail rail_electric rail_fast ship container cable_car subway aircraft wheelchair scooter drone" speed="5.93" length="9.15" shape="1860.24,2084.41 1862.78,2085.06 1864.65,2084.63 1865.86,2083.11 1866.41,2080.50"/>
    </edge>
    <edge id=":1172126152_4" function="internal">
        <lane id=":1172126152_4_0" index="0" disallow="tram rail_urban rail rail_electric rail_fast ship container cable_car subway aircraft wheelchair scooter drone" speed="9.24" length="14.73" shape="1860.24,2084.41 1864.10,2086.49 1866.77,2089.00 1868.24,2091.95 1868.52,2095.32"/>
    </edge>
    <edge id=":1172126152_5" function="internal">
        <lane id=":1172126152_5_0" index="0" disallow="tram rail_urban rail rail_electric rail_fast ship container cable_car subway aircraft wheelchair scooter drone" speed="3.65" length="4.68" shape="1860.24,2084.41 1861.09,2085.57 1861.19,2086.46 1860.54,2087.08 1859.14,2087.41"/>
    </edge>
    <edge id=":1172126152_6" function="internal">
        <lane id=":1172126152_6_0" index="0" disallow="tram rail_urban rail rail_electric rail_fast ship container cable_car subway aircraft wheelchair scooter drone" speed="7.91" length="10.59" shape="1865.32,2095.10 1865.10,2092.78 1864.00,2090.72 1862.01,2088.93 1859.14,2087.41"/>
    </edge>
    <edge id=":1172126152_7" function="internal">
        <lane id=":1172126152_7_0" index="0" disallow="tram rail_urban rail rail_electric rail_fast ship container cable_car subway aircraft wheelchair scooter drone" speed="13.89" length="14.63" shape="1865.32,2095.10 1866.41,2080.50"/>
    </edge>
    <edge id=":1172126152_8" function="internal">
        <lane id=":1172126152_8_0" index="0" disallow="tram rail_urban rail rail_electric rail_fast ship container cable_car subway aircraft wheelchair scooter drone" speed="3.65" length="1.44" shape="1865.32,2095.10 1866.21,2093.95"/>
    </edge>
    <edge id=":1172126152_11" function="internal">
        <lane id=":1172126152_11_0" index="0" disallow="tram rail_urban rail rail_electric rail_fast ship container cable_car subway aircraft wheelchair scooter drone" speed="3.65" length="3.23" shape="1866.21,2093.95 1867.03,2093.61 1867.80,2094.07 1868.52,2095.32"/>
    </edge>
    <edge id=":1179546937_0" function="internal">
        <lane id=":1179546937_0_0" index="0" disallow="tram rail_urban rail rail_electric rail_fast ship container cable_car subway aircraft wheelchair scooter drone" speed="7.66" length="10.47" shape="2507.66,1891.31 2505.36,1892.13 2503.64,1893.69 2502.50,1896.01 2501.94,1899.08"/>
    </edge>
    <edge id=":1179546937_1" function="internal">
        <lane id=":1179546937_1_0" index="0" disallow="tram rail_urban rail rail_electric rail_fast ship container cable_car subway aircraft wheelchair scooter drone" speed="11.11" length="14.63" shape="2507.66,1891.31 2493.25,1893.86"/>
    </edge>
    <edge id=":1179546937_2" function="internal">
        <lane id=":1179546937_2_0" index="0" disallow="tram rail_urban rail rail_electric rail_fast ship container cable_car subway aircraft wheelchair scooter drone" speed="3.65" length="1.44" shape="2507.66,1891.31 2506.34,1890.72"/>
    </edge>
    <edge id=":1179546937_9" function="internal">
        <lane id=":1179546937_9_0" index="0" disallow="tram rail_urban rail rail_electric rail_fast ship container cable_car subway aircraft wheelchair scooter drone" speed="3.65" length="3.23" shape="2506.34,1890.72 2505.81,1890.00 2506.08,1889.15 2507.13,1888.16"/>
    </edge>
    <edge id=":1179546937_3" function="internal">
        <lane id=":1179546937_3_0" index="0" disallow="tram rail_urban rail rail_electric rail_fast ship container cable_car subway aircraft wheelchair scooter drone" speed="11.11" length="14.67" shape="2492.68,1890.71 2507.13,1888.16"/>
    </edge>
    <edge id=":1179546937_4" function="internal">
        <lane id=":1179546937_4_0" index="0" disallow="tram rail_urban rail rail_electric rail_fast ship container cable_car subway aircraft wheelchair scooter drone" speed="7.62" length="4.36" shape="2492.68,1890.71 2497.03,1890.54"/>
    </edge>
    <edge id=":1179546937_5" function="internal">
        <lane id=":1179546937_5_0" index="0" disallow="tram rail_urban rail rail_electric rail_fast ship container cable_car subway aircraft wheelchair scooter drone" speed="3.65" length="1.44" shape="2492.68,1890.71 2494.00,1891.28"/>
    </edge>
    <edge id=":1179546937_10" function="internal">
        <lane id=":1179546937_10_0" index="0" disallow="tram rail_urban rail rail_electric rail_fast ship container cable_car subway aircraft wheelchair scooter drone" speed="7.62" length="10.92" shape="2497.03,1890.54 2500.03,1891.88 2501.66,1894.73 2501.94,1899.08"/>
    </edge>
    <edge id=":1179546937_11" function="internal">
        <lane id=":1179546937_11_0" index="0" disallow="tram rail_urban rail rail_electric rail_fast ship container cable_car subway aircraft wheelchair scooter drone" speed="3.65" length="3.23" shape="2494.00,1891.28 2494.54,1892.00 2494.29,1892.86 2493.25,1893.86"/>
    </edge>
    <edge id=":1179546937_6" function="internal">
        <lane id=":1179546937_6_0" index="0" disallow="tram rail_urban rail rail_electric rail_fast ship container cable_car subway aircraft wheelchair scooter drone" speed="6.02" length="9.08" shape="2498.75,1898.83 2498.59,1896.24 2497.62,1894.55 2495.84,1893.76 2493.25,1893.86"/>
    </edge>
    <edge id=":1179546937_7" function="internal">
        <lane id=":1179546937_7_0" index="0" disallow="tram rail_urban rail rail_electric rail_fast ship container cable_car subway aircraft wheelchair scooter drone" speed="8.99" length="14.74" shape="2498.75,1898.83 2499.55,1894.64 2501.22,1891.47 2503.74,1889.31 2507.13,1888.16"/>
    </edge>
    <edge id=":1179546937_8" function="internal">
        <lane id=":1179546937_8_0" index="0" disallow="tram rail_urban rail rail_electric rail_fast ship container cable_car subway aircraft wheelchair scooter drone" speed="3.65" length="4.67" shape="2498.75,1898.83 2499.64,1897.70 2500.47,1897.36 2501.24,1897.82 2501.94,1899.08"/>
    </edge>
    <edge id=":11799687312_0" function="internal">
        <lane id=":11799687312_0_0" index="0" disallow="tram rail_urban rail rail_electric rail_fast ship container cable_car subway aircraft wheelchair scooter drone" speed="2.54" length="2.26" width="1.55" shape="2619.32,186.28 2619.99,186.48 2620.29,186.79 2620.22,187.22 2619.78,187.76"/>
    </edge>
    <edge id=":12153555453_0" function="internal">
        <lane id=":12153555453_0_0" index="0" disallow="tram rail_urban rail rail_electric rail_fast ship container cable_car subway aircraft wheelchair scooter drone" speed="13.89" length="2.90" width="3.00" shape="281.33,493.49 281.46,494.33 281.71,494.89 281.94,495.44 282.01,496.28"/>
    </edge>
    <edge id=":12153555453_1" function="internal">
        <lane id=":12153555453_1_0" index="0" disallow="tram rail_urban rail rail_electric rail_fast ship container cable_car subway aircraft wheelchair scooter drone" speed="13.89" length="2.73" width="1.50" shape="279.01,496.08 279.18,495.30 279.46,494.79 279.73,494.29 279.83,493.51"/>
    </edge>
    <edge id=":12177033614_0" function="internal">
        <lane id=":12177033614_0_0" index="0" disallow="tram rail_urban rail rail_electric rail_fast ship container cable_car subway aircraft wheelchair scooter drone" speed="2.78" length="2.28" width="3.00" shape="2528.03,463.69 2527.78,463.06 2527.53,462.67 2527.28,462.27 2527.03,461.65"/>
    </edge>
    <edge id=":12177069250_0" function="internal">
        <lane id=":12177069250_0_0" index="0" disallow="tram rail_urban rail rail_electric rail_fast ship container cable_car subway aircraft wheelchair scooter drone" speed="2.78" length="3.00" width="4.00" shape="2529.41,468.39 2528.56,465.51"/>
    </edge>
    <edge id=":1231771046_0" function="internal">
        <lane id=":1231771046_0_0" index="0" disallow="tram rail_urban rail rail_electric rail_fast ship container cable_car subway aircraft wheelchair scooter drone" speed="6.21" length="8.52" shape="1477.11,593.59 1475.03,592.21 1473.08,591.74 1471.27,592.19 1469.60,593.55"/>
    </edge>
    <edge id=":1231771046_1" function="internal">
        <lane id=":1231771046_1_0" index="0" disallow="tram rail_urban rail rail_electric rail_fast ship container cable_car subway aircraft wheelchair scooter drone" speed="2.70" length="2.56" width="1.75" shape="1477.11,593.59 1476.90,592.83 1477.01,592.36 1477.47,592.17 1478.25,592.26"/>
    </edge>
    <edge id=":1231771046_2" function="internal">
        <lane id=":1231771046_2_0" index="0" disallow="tram rail_urban rail rail_electric rail_fast ship container cable_car subway aircraft wheelchair scooter drone" speed="6.25" length="8.44" width="1.75" shape="1477.29,584.96 1476.10,586.78 1475.87,588.61 1476.59,590.43 1478.25,592.26"/>
    </edge>
    <edge id=":1231771046_3" function="internal">
        <lane id=":1231771046_3_0" index="0" disallow="tram rail_urban rail rail_electric rail_fast ship container cable_car subway aircraft wheelchair scooter drone" speed="13.89" length="11.55" shape="1477.29,584.96 1469.60,593.55"/>
        <lane id=":1231771046_3_1" index="1" disallow="tram rail_urban rail rail_electric rail_fast ship container cable_car subway aircraft wheelchair scooter drone" speed="13.89" length="11.55" shape="1474.92,582.81 1467.20,591.44"/>
    </edge>
    <edge id=":1231771060_0" function="internal">
        <lane id=":1231771060_0_0" index="0" disallow="tram rail_urban rail rail_electric rail_fast ship container cable_car subway aircraft wheelchair scooter drone" speed="2.58" length="2.34" width="1.60" shape="1417.73,707.62 1417.04,707.82 1416.61,707.70 1416.43,707.29 1416.53,706.58"/>
    </edge>
    <edge id=":1231771178_0" function="internal">
        <lane id=":1231771178_0_0" index="0" disallow="tram rail_urban rail rail_electric rail_fast ship container cable_car subway aircraft wheelchair scooter drone" speed="8.33" length="11.58" width="2.70" shape="1503.84,608.02 1501.69,610.40 1500.21,612.51 1498.79,614.67 1496.82,617.21"/>
    </edge>
    <edge id=":1231771178_1" function="internal">