<?xml version="1.0" encoding="UTF-8"?>

<!-- generated on 2026-02-17T13:30:11.766314+01:00 by Eclipse SUMO netconvert 1.26.0
<netconvertConfiguration xmlns:xsi="http://www.w3.org/2001/XMLSchema-instance" xsi:noNamespaceSchemaLocation="http://sumo.dlr.de/xsd/netconvertConfiguration.xsd">

    <input>
        <osm-files value="/Users/akman/.demandify/cache/osm/6131a76fd28dd838136beee6ccb54823471e98c6acf94c14d815684f0b9f09da.osm.xml"/>
    </input>

    <output>
        <output-file value="/Users/akman/.demandify/cache/networks/f93a8a6357585d014dbf215932c34d0e84b2546c6fd1f96ddbd345f410708cd6.net.xml"/>
    </output>

    <projection>
        <proj.utm value="true"/>
    </projection>

    <processing>
        <geometry.remove value="true"/>
        <roundabouts.guess value="true"/>
    </processing>

    <tls_building>
        <tls.discard-simple value="true"/>
        <tls.guess-signals value="true"/>
    </tls_building>

    <ramp_guessing>
        <ramps.guess value="true"/>
    </ramp_guessing>

    <edge_removal>
        <keep-edges.by-vclass value="passenger"/>
        <keep-edges.components value="1"/>
        <remove-edges.isolated value="true"/>
    </edge_removal>

    <junctions>
        <junctions.join value="true"/>
    </junctions>

    <random_number>
        <seed value="42"/>
    </random_number>

</netconvertConfiguration>
-->

<net version="1.20" junctionCornerDetail="5" limitTurnSpeed="5.50" xmlns:xsi="http://www.w3.org/2001/XMLSchema-instance" xsi:noNamespaceSchemaLocation="http://sumo.dlr.de/xsd/net_file.xsd">

    <location netOffset="-597290.45,-5328619.63" convBoundary="0.00,0.00,2796.53,2030.82" origBoundary="-1.694159,48.103373,-1.653208,48.121665" projParameter="+proj=utm +zone=30 +ellps=WGS84 +datum=WGS84 +units=m +no_defs"/>

    <type id="highway.living_street" priority="2" numLanes="1" speed="2.78" disallow="tram rail_urban rail rail_electric rail_fast ship container cable_car subway aircraft wheelchair scooter drone" oneway="0"/>
    <type id="highway.primary" priority="12" numLanes="2" speed="27.78" disallow="tram rail_urban rail rail_electric rail_fast ship container cable_car subway aircraft wheelchair scooter drone" oneway="0"/>
    <type id="highway.primary_link" priority="7" numLanes="1" speed="22.22" disallow="tram rail_urban rail rail_electric rail_fast ship container cable_car subway aircraft wheelchair scooter drone" oneway="0"/>
    <type id="highway.residential" priority="3" numLanes="1" speed="13.89" disallow="tram rail_urban rail rail_electric rail_fast ship container cable_car subway aircraft wheelchair scooter drone" oneway="0"/>
    <type id="highway.secondary" priority="11" numLanes="1" speed="27.78" disallow="tram rail_urban rail rail_electric rail_fast ship container cable_car subway aircraft wheelchair scooter drone" oneway="0"/>
    <type id="highway.tertiary" priority="10" numLanes="1" speed="22.22" disallow="tram rail_urban rail rail_electric rail_fast ship container cable_car subway aircraft wheelchair scooter drone" oneway="0"/>
    <type id="highway.tertiary_link" priority="5" numLanes="1" speed="22.22" disallow="tram rail_urban rail rail_electric rail_fast ship container cable_car subway aircraft wheelchair scooter drone" oneway="0"/>
    <type id="highway.unclassified" priority="4" numLanes="1" speed="13.89" disallow="tram rail_urban rail rail_electric rail_fast ship container cable_car subway aircraft wheelchair scooter drone" oneway="0"/>

    <edge id=":10022310829_0" function="internal">
        <lane id=":10022310829_0_0" index="0" disallow="tram rail_urban rail rail_electric rail_fast ship container cable_car subway aircraft wheelchair scooter drone" speed="3.65" length="4.67" shape="2656.56,1304.30 2657.85,1303.66 2658.74,1303.72 2659.23,1304.46 2659.32,1305.90"/>
    </edge>
    <edge id=":107587278_0" function="internal">
        <lane id=":107587278_0_0" index="0" disallow="tram rail_urban rail rail_electric rail_fast ship container cable_car subway aircraft wheelchair scooter drone" speed="11.11" length="0.14" shape="1368.99,1276.21 1368.97,1276.07"/>
    </edge>
    <edge id=":107587278_1" function="internal">
        <lane id=":107587278_1_0" index="0" disallow="tram rail_urban rail rail_electric rail_fast ship container cable_car subway aircraft wheelchair scooter drone" speed="11.11" length="0.27" shape="1372.14,1275.60 1372.17,1275.88"/>
    </edge>
    <edge id=":107587335_0" function="internal">
        <lane id=":107587335_0_0" index="0" disallow="tram rail_urban rail rail_electric rail_fast ship container cable_car subway aircraft wheelchair scooter drone" speed="18.05" length="8.20" shape="650.48,715.80 650.65,718.18 651.15,719.79 651.67,721.40 651.89,723.78"/>
        <lane id=":107587335_0_1" index="1" disallow="tram rail_urban rail rail_electric rail_fast ship container cable_car subway aircraft wheelchair scooter drone" speed="18.05" length="8.20" shape="647.28,715.69 647.45,718.10 647.95,719.72 648.47,721.34 648.70,723.75"/>
    </edge>
    <edge id=":107587405_0" function="internal">
        <lane id=":107587405_0_0" index="0" disallow="tram rail_urban rail rail_electric rail_fast ship container cable_car subway aircraft wheelchair scooter drone" speed="5.56" length="9.30" shape="598.71,1265.42 597.48,1263.29 595.82,1262.02 593.70,1261.61 591.14,1262.05"/>
    </edge>
    <edge id=":107587405_1" function="internal">
        <lane id=":107587405_1_0" index="0" disallow="tram rail_urban rail rail_electric rail_fast ship container cable_car subway aircraft wheelchair scooter drone" speed="5.56" length="14.36" shape="598.71,1265.42 593.69,1251.97"/>
    </edge>
    <edge id=":107587405_2" function="internal">
        <lane id=":107587405_2_0" index="0" disallow="tram rail_urban rail rail_electric rail_fast ship container cable_car subway aircraft wheelchair scooter drone" speed="5.56" length="9.03" shape="590.19,1259.00 592.43,1257.92 593.76,1256.39 594.18,1254.41 593.69,1251.97"/>
    </edge>
    <edge id=":107587405_3" function="internal">
        <lane id=":107587405_3_0" index="0" disallow="tram rail_urban rail rail_electric rail_fast ship container cable_car subway aircraft wheelchair scooter drone" speed="3.65" length="4.67" shape="590.19,1259.00 591.57,1259.40 592.19,1260.04 592.05,1260.93 591.14,1262.05"/>
    </edge>
    <edge id=":107587423_0" function="internal">
        <lane id=":107587423_0_0" index="0" disallow="tram rail_urban rail rail_electric rail_fast ship container cable_car subway aircraft wheelchair scooter drone" speed="3.65" length="4.67" shape="507.13,1238.46 508.53,1238.81 509.18,1239.43 509.07,1240.32 508.21,1241.48"/>
    </edge>
    <edge id=":10858007910_0" function="internal">
        <lane id=":10858007910_0_0" index="0" disallow="tram rail_urban rail rail_electric rail_fast ship container cable_car subway aircraft wheelchair scooter drone" speed="8.33" length="8.06" shape="1175.75,463.67 1178.08,463.62 1179.65,463.18 1181.23,462.70 1183.57,462.53"/>
        <lane id=":10858007910_0_1" index="1" disallow="tram rail_urban rail rail_electric rail_fast ship container cable_car subway aircraft wheelchair scooter drone" speed="8.33" length="8.06" shape="1175.75,463.67 1178.07,464.12 1179.60,464.78 1181.13,465.40 1183.46,465.73"/>
        <lane id=":10858007910_0_2" index="2" disallow="tram rail_urban rail rail_electric rail_fast ship container cable_car subway aircraft wheelchair scooter drone" speed="8.33" length="8.06" shape="1175.48,466.86 1177.85,467.31 1179.41,467.97 1180.98,468.60 1183.35,468.93"/>
    </edge>
    <edge id=":10916755507_0" function="internal">
        <lane id=":10916755507_0_0" index="0" disallow="tram rail_urban rail rail_electric rail_fast ship container cable_car subway aircraft wheelchair scooter drone" speed="8.33" length="9.40" shape="970.38,1550.03 979.72,1551.13"/>
        <lane id=":10916755507_0_1" index="1" disallow="tram rail_urban rail rail_electric rail_fast ship container cable_car subway aircraft wheelchair scooter drone" speed="8.33" length="9.40" shape="970.01,1553.21 979.35,1554.31"/>
    </edge>
    <edge id=":10916755507_2" function="internal">
        <lane id=":10916755507_2_0" index="0" disallow="tram rail_urban rail rail_electric rail_fast ship container cable_car subway aircraft wheelchair scooter drone" speed="5.55" length="7.84" shape="970.01,1553.21 972.74,1553.74 974.62,1554.57 975.65,1555.71 975.84,1557.16"/>
    </edge>
    <edge id=":10916755507_3" function="internal">
        <lane id=":10916755507_3_0" index="0" disallow="tram rail_urban rail rail_electric rail_fast ship container cable_car subway aircraft wheelchair scooter drone" speed="5.55" length="7.80" shape="972.68,1556.69 973.26,1555.38 974.57,1554.54 976.60,1554.19 979.35,1554.31"/>
    </edge>
    <edge id=":10916755507_4" function="internal">
        <lane id=":10916755507_4_0" index="0" disallow="tram rail_urban rail rail_electric rail_fast ship container cable_car subway aircraft wheelchair scooter drone" speed="2.78" length="4.67" shape="972.68,1556.69 973.64,1555.62 974.49,1555.34 975.22,1555.85 975.84,1557.16"/>
    </edge>
    <edge id=":10916755533_0" function="internal">
        <lane id=":10916755533_0_0" index="0" disallow="tram rail_urban rail rail_electric rail_fast ship container cable_car subway aircraft wheelchair scooter drone" speed="2.78" length="4.67" shape="965.11,1630.32 964.15,1631.39 963.30,1631.67 962.56,1631.16 961.95,1629.86"/>
    </edge>
    <edge id=":11049732253_0" function="internal">
        <lane id=":11049732253_0_0" index="0" disallow="tram rail_urban rail rail_electric rail_fast ship container cable_car subway aircraft wheelchair scooter drone" speed="3.65" length="4.67" shape="1735.30,926.03 1734.11,925.20 1733.73,924.39 1734.15,923.60 1735.37,922.83"/>
    </edge>
    <edge id=":11118783029_0" function="internal">
        <lane id=":11118783029_0_0" index="0" disallow="tram rail_urban rail rail_electric rail_fast ship container cable_car subway aircraft wheelchair scooter drone" speed="8.33" length="0.22" shape="1784.80,395.74 1784.73,395.75 1784.69,395.77 1784.65,395.78 1784.59,395.81"/>
    </edge>
    <edge id=":11118783029_1" function="internal">
        <lane id=":11118783029_1_0" index="0" disallow="tram rail_urban rail rail_electric rail_fast ship container cable_car subway aircraft wheelchair scooter drone" speed="8.33" length="0.66" shape="1783.37,392.79 1784.01,392.64"/>
    </edge>
    <edge id=":11119620458_0" function="internal">
        <lane id=":11119620458_0_0" index="0" disallow="tram rail_urban rail rail_electric rail_fast ship container cable_car subway aircraft wheelchair scooter drone" speed="8.33" length="2.16" shape="2271.59,978.67 2273.54,977.75"/>
    </edge>
    <edge id=":11119620458_1" function="internal">
        <lane id=":11119620458_1_0" index="0" disallow="tram rail_urban rail rail_electric rail_fast ship container cable_car subway aircraft wheelchair scooter drone" speed="3.65" length="4.67" shape="2271.59,978.67 2272.78,977.86 2273.67,977.79 2274.26,978.46 2274.56,979.87"/>
    </edge>
    <edge id=":11133611117_0" function="internal">
        <lane id=":11133611117_0_0" index="0" disallow="tram rail_urban rail rail_electric rail_fast ship container cable_car subway aircraft wheelchair scooter drone" speed="8.33" length="8.37" shape="2256.72,1109.63 2254.25,1109.32 2252.45,1109.88 2250.66,1110.45 2248.17,1110.18"/>
        <lane id=":11133611117_0_1" index="1" disallow="tram rail_urban rail rail_electric rail_fast ship container cable_car subway aircraft wheelchair scooter drone" speed="8.33" length="8.37" shape="2256.72,1109.63 2249.15,1107.13"/>
    </edge>
    <edge id=":11133611117_2" function="internal">
        <lane id=":11133611117_2_0" index="0" disallow="tram rail_urban rail rail_electric rail_fast ship container cable_car subway aircraft wheelchair scooter drone" speed="8.33" length="8.03" shape="2250.13,1104.09 2257.75,1106.60"/>
    </edge>
    <edge id=":1230791893_0" function="internal">
        <lane id=":1230791893_0_0" index="0" disallow="tram rail_urban rail rail_electric rail_fast ship container cable_car subway aircraft wheelchair scooter drone" speed="3.65" length="4.67" shape="920.86,1740.13 920.25,1741.43 919.52,1741.95 918.67,1741.68 917.70,1740.61"/>
    </edge>
    <edge id=":1252385157_0" function="internal">
        <lane id=":1252385157_0_0" index="0" disallow="tram rail_urban rail rail_electric rail_fast ship container cable_car subway aircraft wheelchair scooter drone" speed="8.33" length="11.21" shape="2233.47,1331.44 2222.28,1331.05"/>
    </edge>
    <edge id=":1252385157_1" function="internal">
        <lane id=":1252385157_1_0" index="0" disallow="tram rail_urban rail rail_electric rail_fast ship container cable_car subway aircraft wheelchair scooter drone" speed="6.51" length="9.09" shape="2228.07,1325.60 2227.65,1328.06 2226.54,1329.79 2224.75,1330.78 2222.28,1331.05"/>
    </edge>
    <edge id=":1262581715_0" function="internal">
        <lane id=":1262581715_0_0" index="0" disallow="tram rail_urban rail rail_electric rail_fast ship container cable_car subway aircraft wheelchair scooter drone" speed="8.11" length="7.08" shape="465.76,405.80 464.43,404.69 462.91,403.95 461.20,403.57 459.30,403.56"/>
    </edge>
    <edge id=":1262581715_1" function="internal">
        <lane id=":1262581715_1_0" index="0" disallow="tram rail_urban rail rail_electric rail_fast ship container cable_car subway aircraft wheelchair scooter drone" speed="8.33" length="7.21" shape="465.76,405.80 464.29,404.26 463.35,403.11 462.66,401.81 461.96,399.81"/>
    </edge>
    <edge id=":1262581722_0" function="internal">
        <lane id=":1262581722_0_0" index="0" disallow="tram rail_urban rail rail_electric rail_fast ship container cable_car subway aircraft wheelchair scooter drone" speed="8.33" length="0.85" shape="355.86,239.54 355.82,238.69"/>
    </edge>
    <edge id=":1262581722_1" function="internal">
        <lane id=":1262581722_1_0" index="0" disallow="tram rail_urban rail rail_electric rail_fast ship container cable_car subway aircraft wheelchair scooter drone" speed="8.33" length="0.28" shape="359.02,238.57 359.03,238.65 359.03,238.71 359.04,238.76 359.06,238.85"/>
    </edge>
    <edge id=":1262581723_0" function="internal">
        <lane id=":1262581723_0_0" index="0" disallow="tram rail_urban rail rail_electric rail_fast ship container cable_car subway aircraft wheelchair scooter drone" speed="12.47" length="7.27" shape="481.34,409.36 479.41,410.25 478.25,411.15 477.29,412.33 475.98,414.05"/>
    </edge>
    <edge id=":1262581723_1" function="internal">
        <lane id=":1262581723_1_0" index="0" disallow="tram rail_urban rail rail_electric rail_fast ship container cable_car subway aircraft wheelchair scooter drone" speed="11.76" length="7.30" shape="481.34,409.36 479.32,410.10 477.85,410.41 476.36,410.34 474.24,409.97"/>
    </edge>
    <edge id=":12898838688_0" function="internal">
        <lane id=":12898838688_0_0" index="0" disallow="tram rail_urban rail rail_electric rail_fast ship container cable_car subway aircraft wheelchair scooter drone" speed="6.33" length="8.25" shape="642.89,387.80 640.49,387.30 638.82,386.29 637.86,384.77 637.62,382.74"/>
    </edge>
    <edge id=":12898838688_1" function="internal">
        <lane id=":12898838688_1_0" index="0" disallow="tram rail_urban rail rail_electric rail_fast ship container cable_car subway aircraft wheelchair scooter drone" speed="8.33" length="10.07" shape="637.16,392.80 637.62,382.74"/>
    </edge>
    <edge id=":1487600295_0" function="internal">
        <lane id=":1487600295_0_0" index="0" disallow="tram rail_urban rail rail_electric rail_fast ship container cable_car subway aircraft wheelchair scooter drone" speed="3.65" length="4.67" shape="354.92,215.63 355.67,214.40 356.46,213.97 357.27,214.34 358.12,215.51"/>
    </edge>
    <edge id=":1509965806_0" function="internal">
        <lane id=":1509965806_0_0" index="0" disallow="tram rail_urban rail rail_electric rail_fast ship container cable_car subway aircraft wheelchair scooter drone" speed="3.65" length="4.67" shape="1765.90,1063.76 1766.95,1064.74 1767.22,1065.60 1766.70,1066.32 1765.38,1066.92"/>
    </edge>
    <edge id=":152720979_0" function="internal">
        <lane id=":152720979_0_0" index="0" disallow="pedestrian tram rail_urban rail rail_electric rail_fast ship container cable_car subway aircraft wheelchair scooter drone" speed="15.27" length="0.60" shape="637.88,592.13 637.94,591.97 637.99,591.86 638.06,591.76 638.17,591.62"/>
    </edge>
    <edge id=":152720982_0" function="internal">
        <lane id=":152720982_0_0" index="0" disallow="tram rail_urban rail rail_electric rail_fast ship container cable_car subway aircraft wheelchair scooter drone" speed="8.33" length="6.69" shape="622.48,639.07 623.10,632.16"/>
        <lane id=":152720982_0_1" index="1" disallow="tram rail_urban rail rail_electric rail_fast ship container cable_car subway aircraft wheelchair scooter drone" speed="8.33" length="6.69" shape="625.68,639.11 626.28,632.45"/>
        <lane id=":152720982_0_2" index="2" disallow="tram rail_urban rail rail_electric rail_fast ship container cable_car subway aircraft wheelchair scooter drone" speed="8.33" length="6.69" shape="628.88,639.16 629.47,632.74"/>
    </edge>
    <edge id=":152720982_3" function="internal">
        <lane id=":152720982_3_0" index="0" disallow="tram rail_urban rail rail_electric rail_fast ship container cable_car subway aircraft wheelchair scooter drone" speed="8.72" length="5.75" shape="632.08,639.21 632.06,637.50 632.13,636.28 632.52,635.18 633.51,633.86"/>
    </edge>
    <edge id=":1531032792_0" function="internal">
        <lane id=":1531032792_0_0" index="0" disallow="tram rail_urban rail rail_electric rail_fast ship container cable_car subway aircraft wheelchair scooter drone" speed="8.33" length="6.04" shape="1528.26,1674.21 1522.27,1672.94"/>
        <lane id=":1531032792_0_1" index="1" disallow="tram rail_urban rail rail_electric rail_fast ship container cable_car subway aircraft wheelchair scooter drone" speed="8.33" length="6.04" shape="1528.87,1671.07 1523.05,1669.84"/>
    </edge>
    <edge id=":1531032792_2" function="internal">
        <lane id=":1531032792_2_0" index="0" disallow="tram rail_urban rail rail_electric rail_fast ship container cable_car subway aircraft wheelchair scooter drone" speed="8.33" length="6.28" shape="1523.83,1666.74 1525.69,1666.68 1526.93,1665.83 1528.19,1664.94 1530.07,1664.79"/>
        <lane id=":1531032792_2_1" index="1" disallow="tram rail_urban rail rail_electric rail_fast ship container cable_car subway aircraft wheelchair scooter drone" speed="8.33" length="6.28" shape="1523.83,1666.74 1529.47,1667.93"/>
    </edge>
    <edge id=":1540731426_0" function="internal">
        <lane id=":1540731426_0_0" index="0" disallow="tram rail_urban rail rail_electric rail_fast ship container cable_car subway aircraft wheelchair scooter drone" speed="6.51" length="8.93" shape="2495.16,1234.63 2492.80,1234.02 2490.79,1234.30 2489.15,1235.48 2487.86,1237.55"/>
    </edge>
    <edge id=":1540731426_1" function="internal">
        <lane id=":1540731426_1_0" index="0" disallow="tram rail_urban rail rail_electric rail_fast ship container cable_car subway aircraft wheelchair scooter drone" speed="8.33" length="14.22" shape="2495.16,1234.63 2482.13,1228.94"/>
    </edge>
    <edge id=":1540731426_2" function="internal">
        <lane id=":1540731426_2_0" index="0" disallow="tram rail_urban rail rail_electric rail_fast ship container cable_car subway aircraft wheelchair scooter drone" speed="3.65" length="1.44" shape="2495.16,1234.63 2494.36,1233.43"/>
    </edge>
    <edge id=":1540731426_9" function="internal">
        <lane id=":1540731426_9_0" index="0" disallow="tram rail_urban rail rail_electric rail_fast ship container cable_car subway aircraft wheelchair scooter drone" speed="3.65" length="3.23" shape="2494.36,1233.43 2494.30,1232.54 2494.98,1231.95 2496.39,1231.68"/>
    </edge>
    <edge id=":1540731426_3" function="internal">
        <lane id=":1540731426_3_0" index="0" disallow="tram rail_urban rail rail_electric rail_fast ship container cable_car subway aircraft wheelchair scooter drone" speed="8.33" length="14.11" shape="2483.46,1226.03 2496.39,1231.68"/>
    </edge>
    <edge id=":1540731426_4" function="internal">
        <lane id=":1540731426_4_0" index="0" disallow="tram rail_urban rail rail_electric rail_fast ship container cable_car subway aircraft wheelchair scooter drone" speed="7.97" length="3.98" shape="2483.46,1226.03 2486.71,1228.06 2486.80,1228.19"/>
    </edge>
    <edge id=":1540731426_5" function="internal">
        <lane id=":1540731426_5_0" index="0" disallow="tram rail_urban rail rail_electric rail_fast ship container cable_car subway aircraft wheelchair scooter drone" speed="3.65" length="1.44" shape="2483.46,1226.03 2484.22,1227.26"/>
    </edge>
    <edge id=":1540731426_10" function="internal">
        <lane id=":1540731426_10_0" index="0" disallow="tram rail_urban rail rail_electric rail_fast ship container cable_car subway aircraft wheelchair scooter drone" speed="7.97" length="10.08" shape="2486.80,1228.19 2488.52,1230.66 2488.91,1233.82 2487.86,1237.55"/>
    </edge>
    <edge id=":1540731426_11" function="internal">
        <lane id=":1540731426_11_0" index="0" disallow="tram rail_urban rail rail_electric rail_fast ship container cable_car subway aircraft wheelchair scooter drone" speed="3.65" length="3.23" shape="2484.22,1227.26 2484.25,1228.15 2483.55,1228.71 2482.13,1228.94"/>
    </edge>
    <edge id=":1540731426_6" function="internal">
        <lane id=":1540731426_6_0" index="0" disallow="tram rail_urban rail rail_electric rail_fast ship container cable_car subway aircraft wheelchair scooter drone" speed="6.48" length="8.94" shape="2484.93,1236.27 2485.60,1233.89 2485.35,1231.88 2484.19,1230.23 2482.13,1228.94"/>
    </edge>
    <edge id=":1540731426_7" function="internal">
        <lane id=":1540731426_7_0" index="0" disallow="tram rail_urban rail rail_electric rail_fast ship container cable_car subway aircraft wheelchair scooter drone" speed="8.00" length="14.03" shape="2484.93,1236.27 2486.95,1233.01 2489.53,1231.16 2492.68,1230.71 2496.39,1231.68"/>
    </edge>
    <edge id=":1540731426_8" function="internal">
        <lane id=":1540731426_8_0" index="0" disallow="tram rail_urban rail rail_electric rail_fast ship container cable_car subway aircraft wheelchair scooter drone" speed="3.65" length="4.67" shape="2484.93,1236.27 2486.15,1235.49 2487.04,1235.44 2487.61,1236.13 2487.86,1237.55"/>
    </edge>
    <edge id=":1540731429_0" function="internal">
        <lane id=":1540731429_0_0" index="0" disallow="tram rail_urban rail rail_electric rail_fast ship container cable_car subway aircraft wheelchair scooter drone" speed="3.65" length="4.67" shape="2454.31,1314.20 2453.09,1314.98 2452.20,1315.03 2451.63,1314.34 2451.37,1312.92"/>
    </edge>
    <edge id=":1597357023_0" function="internal">
        <lane id=":1597357023_0_0" index="0" disallow="tram rail_urban rail rail_electric rail_fast ship container cable_car subway aircraft wheelchair scooter drone" speed="8.33" length="3.52" shape="1021.30,322.47 1020.44,322.01 1020.02,321.35 1019.60,320.70 1018.73,320.26"/>
    </edge>
    <edge id=":1597357023_1" function="internal">
        <lane id=":1597357023_1_0" index="0" disallow="tram rail_urban rail rail_electric rail_fast ship container cable_car subway aircraft wheelchair scooter drone" speed="3.65" length="4.67" shape="1021.30,322.47 1020.31,321.43 1020.09,320.56 1020.66,319.87 1022.00,319.35"/>
    </edge>
    <edge id=":1709712002_0" function="internal">
        <lane id=":1709712002_0_0" index="0" disallow="tram rail_urban rail rail_electric rail_fast ship container cable_car subway aircraft wheelchair scooter drone" speed="8.33" length="1.77" shape="2609.72,1007.88 2610.03,1009.63"/>
    </edge>
    <edge id=":1709712002_1" function="internal">
        <lane id=":1709712002_1_0" index="0" disallow="tram rail_urban rail rail_electric rail_fast ship container cable_car subway aircraft wheelchair scooter drone" speed="3.65" length="4.67" shape="2609.72,1007.88 2611.16,1008.03 2611.88,1008.55 2611.90,1009.44 2611.22,1010.71"/>
    </edge>
    <edge id=":1716534267_0" function="internal">
        <lane id=":1716534267_0_0" index="0" disallow="tram rail_urban rail rail_electric rail_fast ship container cable_car subway aircraft wheelchair scooter drone" speed="18.05" length="6.23" shape="1419.55,743.02 1425.77,743.34"/>
    </edge>
    <edge id=":1716534269_0" function="internal">
        <lane id=":1716534269_0_0" index="0" disallow="tram rail_urban rail rail_electric rail_fast ship container cable_car subway aircraft wheelchair scooter drone" speed="18.05" length="3.11" shape="1414.69,779.92 1411.58,779.87"/>
    </edge>
    <edge id=":1738235299_0" function="internal">
        <lane id=":1738235299_0_0" index="0" disallow="tram rail_urban rail rail_electric rail_fast ship container cable_car subway aircraft wheelchair scooter drone" speed="8.33" length="2.98" shape="1415.14,318.61 1414.47,321.51"/>
    </edge>
    <edge id=":1738235299_1" function="internal">
        <lane id=":1738235299_1_0" index="0" disallow="tram rail_urban rail rail_electric rail_fast ship container cable_car subway aircraft wheelchair scooter drone" speed="3.65" length="4.67" shape="1415.14,318.61 1414.08,319.59 1413.21,319.79 1412.52,319.22 1412.03,317.86"/>
    </edge>
    <edge id=":1803859253_0" function="internal">
        <lane id=":1803859253_0_0" index="0" disallow="tram rail_urban rail rail_electric rail_fast ship container cable_car subway aircraft wheelchair scooter drone" speed="8.33" length="3.00" shape="1837.76,349.49 1838.66,352.35"/>
    </edge>
    <edge id=":1918369329_0" function="internal">
        <lane id=":1918369329_0_0" index="0" disallow="tram rail_urban rail rail_electric rail_fast ship container cable_car subway aircraft wheelchair scooter drone" speed="2.78" length="4.67" shape="515.44,1041.87 514.73,1043.13 513.96,1043.59 513.13,1043.25 512.24,1042.11"/>
    </edge>
    <edge id=":1919879329_0" function="internal">
        <lane id=":1919879329_0_0" index="0" disallow="tram rail_urban rail rail_electric rail_fast ship container cable_car subway aircraft wheelchair scooter drone" speed="8.33" length="7.60" shape="392.63,292.00 391.40,293.90 390.84,295.40 390.22,296.86 388.83,298.61"/>
        <lane id=":1919879329_0_1" index="1" disallow="tram rail_urban rail rail_electric rail_fast ship container cable_car subway aircraft wheelchair scooter drone" speed="8.33" length="7.60" shape="392.63,292.00 391.06,293.53 389.70,294.27 388.30,294.96 386.57,296.35"/>
    </edge>
    <edge id=":1998516942_0" function="internal">
        <lane id=":1998516942_0_0" index="0" disallow="tram rail_urban rail rail_electric rail_fast ship container cable_car subway aircraft wheelchair scooter drone" speed="6.78" length="8.54" shape="481.35,632.57 480.88,634.90 481.16,636.89 482.17,638.56 483.93,639.90"/>
    </edge>
    <edge id=":1998516942_1" function="internal">
        <lane id=":1998516942_1_0" index="0" disallow="tram rail_urban rail rail_electric rail_fast ship container cable_car subway aircraft wheelchair scooter drone" speed="8.33" length="10.32" shape="474.81,635.06 483.93,639.90"/>
    </edge>
    <edge id=":1998516981_0" function="internal">
        <lane id=":1998516981_0_0" index="0" disallow="tram rail_urban rail rail_electric rail_fast ship container cable_car subway aircraft wheelchair scooter drone" speed="8.33" length="11.28" shape="2025.76,837.16 2023.84,848.27"/>
    </edge>
    <edge id=":1998516981_1" function="internal">
        <lane id=":1998516981_1_0" index="0" disallow="tram rail_urban rail rail_electric rail_fast ship container cable_car subway aircraft wheelchair scooter drone" speed="6.18" length="9.06" shape="2019.04,842.36 2021.54,842.78 2023.18,843.90 2023.94,845.73 2023.84,848.27"/>
    </edge>
    <edge id=":1998517003_0" function="internal">
        <lane id=":1998517003_0_0" index="0" disallow="tram rail_urban rail rail_electric rail_fast ship container cable_car subway aircraft wheelchair scooter drone" speed="6.51" length="9.00" shape="2009.03,925.78 2008.91,928.24 2009.61,930.15 2011.12,931.51 2013.45,932.33"/>
    </edge>
    <edge id=":1998517003_1" function="internal">
        <lane id=":1998517003_1_0" index="0" disallow="tram rail_urban rail rail_electric rail_fast ship container cable_car subway aircraft wheelchair scooter drone" speed="8.33" length="11.13" shape="2009.03,925.78 2006.84,936.69"/>
    </edge>
    <edge id=":1998517055_0" function="internal">
        <lane id=":1998517055_0_0" index="0" disallow="tram rail_urban rail rail_electric rail_fast ship container cable_car subway aircraft wheelchair scooter drone" speed="6.10" length="8.74" shape="1987.00,1033.36 1986.88,1035.75 1987.63,1037.50 1989.24,1038.59 1991.71,1039.03"/>
    </edge>
    <edge id=":1998517055_1" function="internal">
        <lane id=":1998517055_1_0" index="0" disallow="tram rail_urban rail rail_electric rail_fast ship container cable_car subway aircraft wheelchair scooter drone" speed="8.33" length="17.27" shape="1987.00,1033.36 1986.43,1037.42 1986.16,1041.94 1986.13,1046.47 1986.28,1050.58"/>
    </edge>
    <edge id=":1998517055_2" function="internal">
        <lane id=":1998517055_2_0" index="0" disallow="tram rail_urban rail rail_electric rail_fast ship container cable_car subway aircraft wheelchair scooter drone" speed="8.33" length="14.44" shape="1987.00,1033.36 1985.68,1038.58 1984.11,1042.30 1982.30,1044.50 1980.24,1045.19"/>
    </edge>
    <edge id=":1998517055_3" function="internal">